./reference/1dis_scaffold_ref.xyz
     RDKit          3D

 13 14  0  0  0  0  0  0  0  0999 V2000
    1.3826   -0.3539   -0.4611 C   0  0  0  0  0  0  0  0  0  0  0  0
    1.1956   -1.7469   -0.4121 C   0  0  0  0  0  0  0  0  0  0  0  0
    1.9926    0.2071   -1.5731 C   0  0  0  0  0  0  0  0  0  0  0  0
    1.6576   -2.5519   -1.4591 C   0  0  0  0  0  0  0  0  0  0  0  0
    2.5316   -0.6049   -2.5571 C   0  0  0  0  0  0  0  0  0  0  0  0
    2.3536   -1.9799   -2.4951 C   0  0  0  0  0  0  0  0  0  0  0  0
   -0.9074   -4.0969   -1.5721 C   0  0  0  0  0  0  0  0  0  0  0  0
    1.6466   -4.0549   -1.6251 C   0  0  0  0  0  0  0  0  0  0  0  0
    0.3176   -4.7929   -1.4401 C   0  0  0  0  0  0  0  0  0  0  0  0
   -2.0634   -4.6659   -1.2431 N   0  0  0  0  0  0  0  0  0  0  0  0
    0.2206   -6.1479   -1.0041 C   0  0  0  0  0  0  0  0  0  0  0  0
   -2.0284   -5.9149   -0.8061 C   0  0  0  0  0  0  0  0  0  0  0  0
   -0.9574   -6.6769   -0.6951 N   0  0  0  0  0  0  0  0  0  0  0  0
  1  2  2  0
  3  1  1  0
  4  2  1  0
  5  6  1  0
  5  3  2  0
  6  4  2  0
  7  9  2  0
  7 10  1  0
  8  4  1  0
  8  9  1  0
  9 11  1  0
 10 12  2  0
 11 13  2  0
 12 13  1  0
M  END
$$$$
