./reference/1hkm_scaffold_ref.xyz
     RDKit          3D

 22 25  0  0  1  0  0  0  0  0999 V2000
    0.1444    1.0711    0.4474 O   0  0  0  0  0  0  0  0  0  0  0  0
    1.3424    0.4721   -0.1026 C   0  0  2  0  0  0  0  0  0  0  0  0
   -0.9816    0.9751   -0.4776 C   0  0  0  0  0  0  0  0  0  0  0  0
    1.1164   -1.0249   -0.3776 C   0  0  0  0  0  0  0  0  0  0  0  0
   -1.3506   -0.4979   -0.6526 C   0  0  2  0  0  0  0  0  0  0  0  0
   -0.1346   -1.2469   -1.2526 C   0  0  0  0  0  0  0  0  0  0  0  0
    2.4094    0.5841    0.8434 O   0  0  0  0  0  0  0  0  0  0  0  0
   -2.5176   -0.5899   -1.4736 O   0  0  0  0  0  0  0  0  0  0  0  0
    2.9894    1.9071    0.8964 C   0  0  1  0  0  0  0  0  0  0  0  0
   -3.1446   -1.8649   -1.3666 C   0  0  2  0  0  0  0  0  0  0  0  0
    2.2464    2.9411    1.7414 C   0  0  0  0  0  0  0  0  0  0  0  0
   -2.5406   -2.7689   -2.3316 O   0  0  0  0  0  0  0  0  0  0  0  0
    4.3164    1.8891    1.6454 C   0  0  0  0  0  0  0  0  0  0  0  0
   -4.6396   -1.6499   -1.6576 C   0  0  0  0  0  0  0  0  0  0  0  0
    3.2784    4.0321    2.0344 C   0  0  2  0  0  0  0  0  0  0  0  0
   -3.1716   -4.0749   -2.3346 C   0  0  0  0  0  0  0  0  0  0  0  0
    4.6524    3.3181    2.0804 C   0  0  1  0  0  0  0  0  0  0  0  0
   -5.3706   -2.9829   -1.8046 C   0  0  0  0  0  0  0  0  0  0  0  0
    3.1464    4.5401    3.3894 N   0  0  0  0  0  0  0  0  0  0  0  0
   -4.6246   -3.9029   -2.7906 C   0  0  0  0  0  0  0  0  0  0  0  0
    5.0454    3.3251    3.4924 O   0  0  0  0  0  0  0  0  0  0  0  0
    4.1464    4.1221    4.1374 C   0  0  0  0  0  0  0  0  0  0  0  0
  2  1  1  0
  2  7  1  1
  3  1  1  0
  4  2  1  0
  5  8  1  6
  5  3  1  0
  6  5  1  0
  6  4  1  0
  9  7  1  1
  9 13  1  0
  9 11  1  0
 10  8  1  6
 12 10  1  0
 14 10  1  0
 15 11  1  1
 15 17  1  0
 15 19  1  0
 16 12  1  0
 17 13  1  1
 17 21  1  0
 18 14  1  0
 19 22  2  0
 20 16  1  0
 20 18  1  0
 21 22  1  0
M  END
$$$$
