./reference/1m13_scaffold_ref.xyz
     RDKit          3D

 11 12  0  0  1  0  0  0  0  0999 V2000
   -0.9515    0.4168   -1.0851 C   0  0  0  0  0  0  0  0  0  0  0  0
   -1.6975    0.1768    0.5329 C   0  0  1  0  0  0  0  0  0  0  0  0
    1.3275    1.2198    0.2849 C   0  0  0  0  0  0  0  0  0  0  0  0
    0.5985    1.3258   -1.1331 C   0  0  0  0  0  0  0  0  0  0  0  0
   -0.9595   -1.1522    1.1659 C   0  0  0  0  0  0  0  0  0  0  0  0
    0.4485    1.6038    1.6319 C   0  0  1  0  0  0  0  0  0  0  0  0
   -1.1395    1.6258    1.2269 C   0  0  0  0  0  0  0  0  0  0  0  0
    0.0765   -1.1272    2.1419 C   0  0  0  0  0  0  0  0  0  0  0  0
    0.5745    0.3218    2.6259 C   0  0  0  0  0  0  0  0  0  0  0  0
   -1.8565    2.6158    1.4279 O   0  0  0  0  0  0  0  0  0  0  0  0
    1.0685    0.4538    3.7479 O   0  0  0  0  0  0  0  0  0  0  0  0
  2  1  1  6
  2  5  1  0
  2  7  1  0
  4  1  1  0
  4  3  1  0
  5  8  2  0
  6  3  1  6
  6  9  1  0
  7 10  2  0
  7  6  1  0
  8  9  1  0
  9 11  2  0
M  END
$$$$
