./reference/2jbl_ligand_ref.xyz
     RDKit          3D

 37 38  0  0  1  0  0  0  0  0999 V2000
    2.2185    0.9761    1.0838 C   0  0  0  0  0  0  0  0  0  0  0  0
    2.7505    1.5601   -0.0822 O   0  0  0  0  0  0  0  0  0  0  0  0
    1.9865    1.6871    2.2528 C   0  0  0  0  0  0  0  0  0  0  0  0
    3.0685    2.9211   -0.0802 C   0  0  0  0  0  0  0  0  0  0  0  0
    2.3095    3.1571    2.3258 C   0  0  0  0  0  0  0  0  0  0  0  0
    2.8785    3.7651    1.0698 C   0  0  0  0  0  0  0  0  0  0  0  0
    3.6095    3.4271   -1.3192 C   0  0  0  0  0  0  0  0  0  0  0  0
    2.1175    3.8131    3.3628 O   0  0  0  0  0  0  0  0  0  0  0  0
    3.2565    5.1651    0.9418 C   0  0  0  0  0  0  0  0  0  0  0  0
    3.9655    4.8081   -1.4012 C   0  0  0  0  0  0  0  0  0  0  0  0
    3.7915    5.6691   -0.2842 C   0  0  0  0  0  0  0  0  0  0  0  0
    1.6265   -0.7919   -0.6142 C   0  0  0  0  0  0  0  0  0  0  0  0
    1.9745   -0.4959    0.8408 C   0  0  0  0  0  0  0  0  0  0  0  0
   -1.7435   -1.6859   -0.9922 C   0  0  0  0  0  0  0  0  0  0  0  0
    1.4325   -2.2829   -0.8872 C   0  0  1  0  0  0  0  0  0  0  0  0
    0.2815   -2.9759   -0.0872 C   0  0  1  0  0  0  0  0  0  0  0  0
   -1.1425   -3.0669   -0.7262 C   0  0  1  0  0  0  0  0  0  0  0  0
    1.3085   -2.5159   -2.4012 C   0  0  0  0  0  0  0  0  0  0  0  0
    1.4235    1.0401    3.4738 C   0  0  0  0  0  0  0  0  0  0  0  0
   -2.2695   -3.0689    1.4588 O   0  0  0  0  0  0  0  0  0  0  0  0
   -2.0665   -3.8509    0.2598 C   0  0  1  0  0  0  0  0  0  0  0  0
    0.6835   -4.3539    0.0848 O   0  0  0  0  0  0  0  0  0  0  0  0
    1.3305   -4.6119    1.3288 C   0  0  0  0  0  0  0  0  0  0  0  0
    3.7565    2.5391   -2.3712 O   0  0  0  0  0  0  0  0  0  0  0  0
   -2.1495   -3.8499    2.6518 C   0  0  0  0  0  0  0  0  0  0  0  0
   -3.3565   -4.2449   -0.4462 C   0  0  0  0  0  0  0  0  0  0  0  0
   -4.6295   -3.9679   -0.0912 C   0  0  0  0  0  0  0  0  0  0  0  0
    3.0645    5.9521    2.0698 O   0  0  0  0  0  0  0  0  0  0  0  0
   -5.7365   -4.4339   -0.9162 C   0  0  0  0  0  0  0  0  0  0  0  0
    4.4795    5.1861   -2.6522 O   0  0  0  0  0  0  0  0  0  0  0  0
   -7.0515   -4.1989   -0.6412 C   0  0  0  0  0  0  0  0  0  0  0  0
    3.4225    7.3421    2.0128 C   0  0  0  0  0  0  0  0  0  0  0  0
    4.8755    6.5601   -2.8672 C   0  0  0  0  0  0  0  0  0  0  0  0
   -8.2005   -4.6389   -1.4612 C   0  0  0  0  0  0  0  0  0  0  0  0
   -7.9245   -5.4179   -2.7202 C   0  0  0  0  0  0  0  0  0  0  0  0
   -9.4615   -4.3179   -1.0492 C   0  0  0  0  0  0  0  0  0  0  0  0
  -10.7415   -4.6729   -1.7512 C   0  0  0  0  0  0  0  0  0  0  0  0
  1  3  2  0
  2  4  1  0
  2  1  1  0
  3  5  1  0
  3 19  1  0
  4  6  2  0
  5  8  2  0
  6  5  1  0
  7  4  1  0
  9  6  1  0
  9 28  1  0
 10  7  2  0
 10 11  1  0
 11  9  2  0
 12 13  1  0
 13  1  1  0
 15 18  1  6
 15 12  1  0
 15 16  1  0
 16 22  1  6
 17 14  1  1
 17 16  1  0
 17 21  1  0
 20 25  1  0
 21 26  1  0
 21 20  1  1
 22 23  1  0
 24  7  1  0
 26 27  2  3
 29 31  2  3
 29 27  1  0
 30 10  1  0
 32 28  1  0
 33 30  1  0
 34 36  2  3
 34 31  1  0
 35 34  1  0
 37 36  1  0
M  END
$$$$
