./reference/2jbl_scaffold_ref.xyz
     RDKit          3D

 11 12  0  0  0  0  0  0  0  0999 V2000
    2.2185    0.9761    1.0838 C   0  0  0  0  0  0  0  0  0  0  0  0
    2.7505    1.5601   -0.0822 O   0  0  0  0  0  0  0  0  0  0  0  0
    1.9865    1.6871    2.2528 C   0  0  0  0  0  0  0  0  0  0  0  0
    3.0685    2.9211   -0.0802 C   0  0  0  0  0  0  0  0  0  0  0  0
    2.3095    3.1571    2.3258 C   0  0  0  0  0  0  0  0  0  0  0  0
    2.8785    3.7651    1.0698 C   0  0  0  0  0  0  0  0  0  0  0  0
    3.6095    3.4271   -1.3192 C   0  0  0  0  0  0  0  0  0  0  0  0
    2.1175    3.8131    3.3628 O   0  0  0  0  0  0  0  0  0  0  0  0
    3.2565    5.1651    0.9418 C   0  0  0  0  0  0  0  0  0  0  0  0
    3.9655    4.8081   -1.4012 C   0  0  0  0  0  0  0  0  0  0  0  0
    3.7915    5.6691   -0.2842 C   0  0  0  0  0  0  0  0  0  0  0  0
  1  3  2  0
  2  4  1  0
  2  1  1  0
  3  5  1  0
  4  6  2  0
  5  8  2  0
  6  5  1  0
  7  4  1  0
  9  6  1  0
 10  7  2  0
 10 11  1  0
 11  9  2  0
M  END
$$$$
