./reference/4aaw_ligand_ref.xyz
     RDKit          3D

 44 46  0  0  1  0  0  0  0  0999 V2000
   -0.4891    0.6027   -0.1877 N   0  0  0  0  0  0  0  0  0  0  0  0
   -1.5921   -0.4003    0.1773 C   0  0  0  0  0  0  0  0  0  0  0  0
    0.4109    1.6707    0.8203 S   0  0  1  0  0  0  0  0  0  0  0  0
   -1.1811   -1.8863    0.0453 C   0  0  0  0  0  0  0  0  0  0  0  0
    1.0789    0.6497    2.1193 C   0  0  0  0  0  0  0  0  0  0  0  0
    1.5149    2.1277    0.0263 O   0  0  0  0  0  0  0  0  0  0  0  0
   -0.4191   -1.5003   -2.1207 N   0  0  0  0  0  0  0  0  0  0  0  0
    1.9439   -0.4093    1.7953 C   0  0  0  0  0  0  0  0  0  0  0  0
   -0.5991   -2.3853   -1.0947 C   0  0  0  0  0  0  0  0  0  0  0  0
   -0.4731    2.4147    1.6603 O   0  0  0  0  0  0  0  0  0  0  0  0
   -1.3721   -2.8173    1.0763 C   0  0  0  0  0  0  0  0  0  0  0  0
   -1.7331   -1.1873   -2.7117 C   0  0  0  0  0  0  0  0  0  0  0  0
    0.6979    0.8327    3.4393 C   0  0  0  0  0  0  0  0  0  0  0  0
    0.3389   -2.1413   -3.1737 C   0  0  0  0  0  0  0  0  0  0  0  0
    2.4729   -1.2533    2.7783 C   0  0  0  0  0  0  0  0  0  0  0  0
   -0.2081   -3.7493   -1.2287 C   0  0  0  0  0  0  0  0  0  0  0  0
   -1.5391   -0.0363   -3.6777 C   0  0  0  0  0  0  0  0  0  0  0  0
    0.8819   -0.9683   -3.9977 C   0  0  0  0  0  0  0  0  0  0  0  0
   -0.9761   -4.1543    0.9583 C   0  0  0  0  0  0  0  0  0  0  0  0
   -0.2331   -0.0303   -4.4747 C   0  0  1  0  0  0  0  0  0  0  0  0
    1.2279    0.0367    4.4353 C   0  0  0  0  0  0  0  0  0  0  0  0
   -0.3561   -4.6643   -0.1927 C   0  0  0  0  0  0  0  0  0  0  0  0
    2.0959   -1.0213    4.1093 C   0  0  0  0  0  0  0  0  0  0  0  0
    2.2549   -0.5803    0.4613 O   0  0  0  0  0  0  0  0  0  0  0  0
    2.9039   -1.8913    0.2353 C   0  0  0  0  0  0  0  0  0  0  0  0
    0.8389    0.2487    5.7723 N   0  0  0  0  0  0  0  0  0  0  0  0
   -0.4411   -0.1863   -5.9687 C   0  0  0  0  0  0  0  0  0  0  0  0
    2.5909   -1.8083    5.1403 O   0  0  0  0  0  0  0  0  0  0  0  0
    0.4349    2.5157    5.8113 O   0  0  0  0  0  0  0  0  0  0  0  0
    3.6719   -2.5713    4.6813 C   0  0  0  0  0  0  0  0  0  0  0  0
    0.4369    1.4597    6.3913 C   0  0  0  0  0  0  0  0  0  0  0  0
   -0.8561    1.1147   -6.4957 O   0  0  0  0  0  0  0  0  0  0  0  0
   -1.7671    1.2287   -7.4967 C   0  0  0  0  0  0  0  0  0  0  0  0
   -0.0521    1.5037    7.7963 C   0  0  0  0  0  0  0  0  0  0  0  0
   -2.7361    0.4737   -7.5647 O   0  0  0  0  0  0  0  0  0  0  0  0
    1.1339    1.3257    8.7563 C   0  0  0  0  0  0  0  0  0  0  0  0
   -1.5511    2.3087   -8.5407 C   0  0  0  0  0  0  0  0  0  0  0  0
   -2.6381    2.2347   -9.6317 C   0  0  0  0  0  0  0  0  0  0  0  0
    0.5909    1.4057   10.1713 C   0  0  0  0  0  0  0  0  0  0  0  0
   -0.7301    1.0497   10.3863 O   0  0  0  0  0  0  0  0  0  0  0  0
   -1.3211    0.4347  -10.8017 O   0  0  0  0  0  0  0  0  0  0  0  0
   -2.4681    1.1307  -10.6747 C   0  0  0  0  0  0  0  0  0  0  0  0
    1.3679    1.8427   11.0503 O   0  0  0  0  0  0  0  0  0  0  0  0
   -3.3861    0.8567  -11.4257 O   0  0  0  0  0  0  0  0  0  0  0  0
  1  2  1  0
  3  1  1  6
  3 10  2  0
  3  5  1  0
  4  2  1  0
  4 11  2  0
  5 13  1  0
  6  3  2  0
  7  9  1  0
  8  5  2  0
  8 15  1  0
  9  4  1  0
 12  7  1  0
 13 21  2  0
 14  7  1  0
 15 23  2  0
 16  9  2  0
 16 22  1  0
 17 12  1  0
 18 14  1  0
 19 11  1  0
 20 27  1  6
 20 18  1  0
 20 17  1  0
 21 26  1  0
 22 19  2  0
 23 21  1  0
 23 28  1  0
 24  8  1  0
 25 24  1  0
 26 31  1  0
 29 31  2  0
 30 28  1  0
 31 34  1  0
 32 27  1  0
 33 32  1  0
 34 36  1  0
 35 33  2  0
 36 39  1  0
 37 33  1  0
 38 37  1  0
 39 40  2  0
 39 43  1  0
 41 42  2  0
 42 38  1  0
 44 42  1  0
M  END
$$$$
