./reference/4k43_scaffold_ref.xyz
     RDKit          3D

 12 13  0  0  0  0  0  0  0  0999 V2000
   -1.5861    3.3038   -0.8683 C   0  0  0  0  0  0  0  0  0  0  0  0
   -0.3601    3.9818   -1.0683 O   0  0  0  0  0  0  0  0  0  0  0  0
   -2.5311    3.5778   -2.0533 C   0  0  0  0  0  0  0  0  0  0  0  0
   -0.4301    5.3868   -1.1903 C   0  0  2  0  0  0  0  0  0  0  0  0
    2.0179    5.3468   -2.0293 C   0  0  0  0  0  0  0  0  0  0  0  0
   -2.5601    5.1068   -2.2393 C   0  0  0  0  0  0  0  0  0  0  0  0
   -1.2441    5.6378   -2.3163 O   0  0  0  0  0  0  0  0  0  0  0  0
    0.9659    6.0438   -1.4063 C   0  0  0  0  0  0  0  0  0  0  0  0
    3.2889    5.8908   -2.2343 C   0  0  0  0  0  0  0  0  0  0  0  0
    1.2919    7.3348   -0.9923 C   0  0  0  0  0  0  0  0  0  0  0  0
    3.5789    7.1868   -1.8153 C   0  0  0  0  0  0  0  0  0  0  0  0
    2.5609    7.9068   -1.1873 C   0  0  0  0  0  0  0  0  0  0  0  0
  2  1  1  0
  3  1  1  0
  4  2  1  6
  5  8  2  0
  6  3  1  0
  7  6  1  0
  7  4  1  0
  8  4  1  0
  8 10  1  0
  9  5  1  0
  9 11  2  0
 11 12  1  0
 12 10  2  0
M  END
$$$$
